LAMMPS (29 Sep 2021)
Processor partition = 6
# System Setup
units       real
dimension   3
boundary    p p s
atom_style  charge
neigh_modify  delay 5
atom_modify map array sort 0 0.0
newton      on

# Read Data
read_data ./image-0.lmp
Reading data file ...
  orthogonal box = (0.0000000 0.0000000 0.0000000) to (252.43931 94.898589 20.000000)
  reading atoms ...
  8280 atoms

# Force field setup
pair_style reaxff NULL
pair_coeff * * ./H-S-Mo.reaxff Mo S
mass 1 95.75
mass 2 32.06
# neigh_modify delay 10 check yes

# Molecular Static run setup
timestep 0.25  # metal 1=1ps; real 1=1fs

# Charge equllibrium step
fix 0 all qeq/reaxff 1 0.0 10.0 1.0e-6 reaxff  # Charge equillibrium at each step
thermo 10
# run 10000

# Minimization
fix 1 all box/relax x 0.0 y 0.0 vmax 0.01

thermo_style custom step pe lx ly lz pxx pyy pzz press
min_style cg
minimize 1e-10 1e-10 5000 10000

CITE-CITE-CITE-CITE-CITE-CITE-CITE-CITE-CITE-CITE-CITE-CITE-CITE

Your simulation uses code contributions which should be cited:

- pair reaxff command:

@Article{Aktulga12,
 author = {H. M. Aktulga, J. C. Fogarty, S. A. Pandit, A. Y. Grama},
 title = {Parallel reactive molecular dynamics: Numerical methods and algorithmic techniques},
 journal = {Parallel Computing},
 year =    2012,
 volume =  38,
 pages =   {245--259}
}

- fix qeq/reaxff command:

@Article{Aktulga12,
 author = {H. M. Aktulga, J. C. Fogarty, S. A. Pandit, A. Y. Grama},
 title = {Parallel reactive molecular dynamics: Numerical methods and algorithmic techniques},
 journal = {Parallel Computing},
 year =    2012,
 volume =  38,
 pages =   {245--259}
}

CITE-CITE-CITE-CITE-CITE-CITE-CITE-CITE-CITE-CITE-CITE-CITE-CITE

  update every 1 steps, delay 0 steps, check yes
Step PotEng Lx Ly Lz Pxx Pyy Pzz Press
0   -927599.07    252.43931    94.898589    3.2398727    95.078367   -171.28286   -481.59633   -185.93361
Loop time of 7.98647 on 16 procs for 102 steps with 8280 atoms

Minimization stats:
  Stopping criterion = energy tolerance
  Energy initial, next-to-last, final =
  Force two-norm initial, final = 228.35560 63.800842
  Force max component initial, final = 193.88066 51.750782
  Final line search alpha, max atom move = 0.00065661968 0.033980582
  Iterations, force evaluations = 102 204

reset_timestep	0
fix 2 all neb 1.0 parallel ideal
unfix 1

min_style quickmin
variable u uloop 200

# region S_bottom_region block INF INF INF INF INF 10.5
# group S_bottom_group region S_bottom_region
# fix 1 S_bottom_group setforce 0.0 0.0 0.0

dump  1 all atom 10 dump.neb.$u
dump  1 all atom 10 dump.neb.7
neb	  1e-6 1e-6 10000 10000 100 final ./image-1.lmp
Step PotEng Lx Ly Lz Pxx Pyy Pzz Press
0   -934758.66    252.45723    94.898021    3.2404368    319693.17    145435.07   -85939.696    126396.18
Averages over the last 106 of 211 rows, steps 1050 to 2099:
PotEng Lx Ly Lz Pxx Pyy Pzz Press
-962951 252.457 94.898 3.24044 59536.9 67336.8 -0.00375831 42291.2
Loop time of 87.619 on 16 procs for 2099 steps with 8280 atoms

Minimization stats:
  Stopping criterion = energy tolerance
  Energy initial, next-to-last, final =
  Force two-norm initial, final = 11619.104 0.15185034
  Force max component initial, final = 162.16161 0.0039468227
  Final line search alpha, max atom move = 0.0000000 0.0000000
  Iterations, force evaluations = 2099 2099

Step PotEng Lx Ly Lz Pxx Pyy Pzz Press
2099   -962950.77    252.45723    94.898021    3.1701775    60856.353    68829.086   0.13260521    43228.524
Loop time of 0.295596 on 16 procs for 6 steps with 8280 atoms

Minimization stats:
  Stopping criterion = energy tolerance
  Energy initial, next-to-last, final =
  Force two-norm initial, final = 0.15188556 0.15188018
  Force max component initial, final = 0.0039468839 0.0039441501
  Final line search alpha, max atom move = 0.0000000 0.0000000
  Iterations, force evaluations = 6 6
